.SUBCKT box4 1 2 3 4
C1 1 100 1e-10
R1 2 100 0.5
C2 100 3 2e-10
R2 100 4 5
.ENDS box4