Version 4
SHEET 1 880 680
TEXT 48 144 Left 2 !.lib buf802.lib
